          55
#	Energy of minimum      1=      -52.6568945749 first found at generation      445
X        -0.1534032766        1.0629148056        1.4513672642
X        -0.5537546077        0.4628700465        2.0111552708
X         0.2813242428        0.2201269761        1.7100643067
X        -0.4966074557       -0.2515639076        1.4300143409
X         1.1557386081       -0.0828567420        1.3992024534
X         0.7816470093        0.8217866044        1.2082276933
X         0.4294375037       -1.4338133651        0.8465314546
X        -0.9713976721        0.5299990367        1.1938972355
X         0.3663231918       -0.4952151571        1.0609986429
X         1.2032475089       -0.9877137105        1.0686059152
X        -0.4111901223       -0.9803877674        0.8320411545
X         1.6601316043        0.5352286164        0.9238996022
X        -0.0737358408        0.3987427018        0.8061315180
X         0.2628000994        1.3882709605        0.6474884825
X        -0.6756337720        1.2023749133        0.6319580109
X         1.6851068029       -0.3564353244        0.5999526212
X         0.8642288436        0.1558903760        0.5214199973
X        -0.9132446198       -0.1958470235        0.5534619522
X         1.1660875747        1.1049313737        0.3704103683
X         0.8333618483       -1.7390397336        0.0547435488
X        -1.4441300056        0.5587958558        0.3471967938
X        -0.0243971330       -1.3205115963        0.0301132689
X        -0.0480101866       -0.3144898007        0.1519298360
X         1.6052721003       -1.2504399868        0.2413613724
X         0.8036952152       -0.7783035477        0.2044538517
X        -0.9429181107       -1.0236579962        0.0600787801
X        -0.5899169315        0.5224806817       -0.0496953378
X         0.3608032004        0.7497053062       -0.0506925458
X         1.6646453564        0.3788892725       -0.0264600806
X        -1.1759898023        1.2904610051       -0.1702760782
X         0.6694803813        1.6561103425       -0.1909393187
X        -1.5731028079       -0.3063137384       -0.1464208691
X        -0.2549412513        1.4898355751       -0.1782200960
X         1.6907573607       -0.5125101747       -0.3386132075
X         0.8507423236       -0.0246100028       -0.4437946923
X        -0.7408072806       -0.3426169228       -0.5775136664
X         0.3510751263       -1.6874853949       -0.7702299184
X         1.1494790798        0.9232940617       -0.6011886209
X         0.1977662951       -0.7085534702       -0.6996174034
X        -1.3681452334        0.4837990734       -0.6203514438
X        -0.5295397776       -1.3560598326       -0.7843810813
X         1.0966059131       -1.1564050011       -0.6377357403
X        -1.4095075972       -1.0584095751       -0.7410686839
X        -0.0214586677        0.2749351888       -0.8029240318
X        -0.6400797386        1.0307166017       -0.9248359534
X         0.3012447231        1.2042753723       -0.9349550028
X         1.5882435321        0.1582675233       -0.9850766257
X        -1.5649656549       -0.2662053442       -1.1327411414
X         0.9219307230       -0.4943739855       -1.2882371221
X         0.0993723946       -1.1578589811       -1.4995171781
X         0.7625376843        0.4346375686       -1.3434158542
X        -0.7645307923       -0.7372204062       -1.4440812591
X        -0.8088850249        0.2122891030       -1.3982192529
X         0.0517828472       -0.2303941503       -1.5995059117
X        -0.0760987179        0.7269810885       -1.6552822946