          55
#Energy of minimum      1=      -52.6255986527 first found at generation      107
X        -0.5321503348       -0.3407256072        1.9124075324
X         0.3681122015       -0.0997526295        1.6854765462
X        -0.3579783043        0.5521804703        1.6490237829
X         1.2565495206        0.1401329718        1.3937729740
X         0.5587883816        0.7956076743        1.3899946717
X         0.0341352747       -0.9724247246        1.4562797833
X        -0.1655679789        1.4215713128        1.3387577654
X        -1.1747889787        0.1262911541        1.3546043237
X         0.9390926209       -0.7215271716        1.1918081621
X        -0.9275281614       -0.9068083013        1.2644230168
X        -0.9938997639        1.0076986021        1.0374652124
X        -0.3430223637       -0.1944618349        1.0009734288
X         0.5876652287       -1.5653156310        0.9450721787
X         0.5776887250        0.0550910475        0.7399222456
X        -0.1483627416        0.7137531076        0.7095301414
X         1.2439931903        0.7611098404        0.6839811219
X        -1.7644396482        0.5406592830        0.6993235396
X        -0.3657417502       -1.5266342067        0.7799799516
X         0.5198913634        1.4237481190        0.6627381141
X        -1.5745134397       -0.4560520325        0.7508446056
X         1.4660067080       -0.1848521950        0.4974089842
X        -1.2908797849       -1.3971966402        0.5546185986
X         0.2283960399       -0.8195724841        0.4912435655
X        -0.4242301681        1.6024505868        0.4513958102
X        -0.9851826286        0.2464816493        0.3598184043
X         1.1468979492       -1.0610263313        0.3249190247
X        -0.7540506258       -0.7277786547        0.2701512818
X        -1.2399337629        1.2017729906        0.1391882382
X        -0.1449203903       -0.0474407894        0.0021111931
X         0.5371038232        0.6842865986       -0.0051312235
X         1.1795504232        1.3787076192       -0.0231612253
X         0.3293282600       -1.6435226062        0.0519651220
X         0.7428795742       -0.2851838176       -0.2154695519
X         1.4387394010        0.4494759390       -0.2170112039
X        -1.6800984123        0.5027105699       -0.2611563662
X        -0.4109712813        0.8561783892       -0.2219586639
X         0.2559584494        1.5893421537       -0.2454256756
X        -0.6204084674       -1.5942774125       -0.1070026560
X        -1.5720699458       -0.4104130017       -0.1619824428
X         0.9148242239       -1.1786363459       -0.5488250092
X        -0.6816547623        1.7338415792       -0.4471807299
X        -0.0264936797       -0.9178576889       -0.4647599932
X        -0.8911767194        0.0751522093       -0.6333561762
X         1.5914219707       -0.4993454290       -0.3998915996
X        -1.0921899378        0.9896333891       -0.8491365340
X         0.1666837450        0.2759893189       -0.8615893096
X         0.8329348548        1.0507418411       -0.8277885974
X        -0.9670328520       -0.9121116838       -0.6499179133
X         1.0977781526        0.1582833783       -1.0316810022
X        -0.1332987641        1.2397422088       -1.0513128730
X        -0.3949681312       -0.4584078226       -1.2367075760
X        -0.5246836945        0.4823515814       -1.4552033877
X         0.5557938656       -0.5845025538       -1.1618601360
X         0.1791234019       -0.0461390109       -1.8189662591
X         0.4480841378        0.7812066038       -1.6200075123